*Heading
** Job name: FXX Model name: Model-1
** Generated by: Abaqus/CAE 2017
*Preprint, echo=NO, model=NO, history=NO, contact=NO
**
** PARTS
**
*Part, name=Part-1
*Node
      1,          7.5,          7.5,           0.
      2,          7.5,         -7.5,           0.
      3,          7.5,          7.5,          15.
      4,          7.5,  -4.78232813,   11.9834328
      5,          7.5,         -7.5,          15.
      6,         -7.5,         -7.5,          15.
      7,         -7.5,          7.5,          15.
      8,         -7.5,          7.5,           0.
      9,         -7.5,         -7.5,           0.
     10,         -7.5,  -4.78232813,   11.9834328
     11,          7.5,   6.17329216,          15.
     12,          7.5,   4.80823517,          15.
     13,          7.5,   3.48351741,          15.
     14,          7.5,   2.38093972,          15.
     15,          7.5,   1.38675678,          15.
     16,          7.5,  0.459955424,          15.
     17,          7.5, -0.454135954,          15.
     18,          7.5,  -1.32491076,          15.
     19,          7.5,  -2.19681072,          15.
     20,          7.5,  -3.15933919,          15.
** ... 5004 like lines cut
*Element, type=C3D8R
   1,  275,  276,   83,   84, 2047, 2048,  418,  419
   2,  276,  257,   82,   83, 2048, 2029,  417,  418
   3,  276,   47,   46,  257, 2048, 1197, 1198, 2029
   4,  275,   48,   47,  276, 2047, 1196, 1197, 2048
   5,  275,  277,   49,   48, 2047, 2049, 1195, 1196
   6,  277,   50,    1,   49, 2049, 1389,  147, 1195
   7,  277,  279,   51,   50, 2049, 2051, 1388, 1389
   8,  279,  258,   52,   51, 2051, 2030, 1387, 1388
   9,  275,  278,  279,  277, 2047, 2050, 2051, 2049
  10,  278,  259,  258,  279, 2050, 2031, 2030, 2051
  11,  278,   85,   86,  259, 2050,  420,  421, 2031
  12,  275,   84,   85,  278, 2047,  419,  420, 2050
  13,   45,  280,  257,   46, 1199, 2052, 2029, 1198
  14,  280,   81,   82,  257, 2052,  416,  417, 2029
  15,   44,  281,  280,   45, 1200, 2053, 2052, 1199
  16,  281,   80,   81,  280, 2053,  415,  416, 2052
  17,   43,  260,  281,   44, 1201, 2032, 2053, 1200
  18,  260,   79,   80,  281, 2032,  414,  415, 2053
  19,   87,  282,  259,   86,  422, 2054, 2031,  421
  20,  282,  283,  258,  259, 2054, 2055, 2030, 2031
** ... 4255 like lines cut
*Nset, nset=Set-1
    4,   10,   63,   64,   65,   66,   67,   68,   69,   70,   71,   72,   73,   74,   75,   76
   77,   78,   79,   80,   81,   82,   83,   84,   85,   86,   87,   88,   89,   90,   91,   92
   93,   94,   95,   96,   97,   98,   99,  100,  101,  102,  103,  104,  105,  214,  215,  216
  217,  218,  219,  220,  221,  222,  223,  224,  225,  226,  227,  228,  229,  230,  231,  232
  233,  234,  235,  236,  237,  238,  239,  240,  241,  242,  243,  244,  245,  246,  247,  248
  249,  250,  251,  252,  253,  254,  255,  256,  397,  398,  399,  400,  401,  402,  403,  404
  405,  406,  407,  408,  409,  410,  411,  412,  413,  414,  415,  416,  417,  418,  419,  420
  421,  422,  423,  424,  425,  426,  427,  428,  429,  430,  431,  432,  433,  434,  435,  436
  437,  438,  439,  440,  441,  442,  443,  444,  445,  446,  447,  448,  449,  450,  451,  452
  453,  454,  455,  456,  457,  458,  459,  460,  461,  462,  463,  464,  465,  466,  467,  468
  469,  470,  471,  472,  473,  474,  475,  476,  477,  478,  479,  480,  481,  482,  483,  484
  485,  486,  487,  488,  489,  490,  491,  492,  493,  494,  495,  496,  497,  498,  499,  500
  501,  502,  503,  504,  505,  506,  507,  508,  509,  510,  511,  512,  513,  514,  515,  516
  517,  518,  519,  520,  521,  522,  523,  524,  525,  526,  527,  528,  529,  530,  531,  532
  533,  534,  535,  536,  537,  538,  539,  540,  541,  542,  543,  544,  545,  546,  547,  548
  549,  550,  551,  552,  553,  554,  555,  556,  557,  558,  559,  560,  561,  562,  563,  564
  565,  566,  567,  568,  569,  570,  571,  572,  573,  574,  575,  576,  577,  578,  579,  580
  581,  582,  583,  584,  585,  586,  587,  588,  589,  590,  591,  592,  593,  594,  595,  596
  597,  598,  599,  600,  601,  602,  603,  604,  605,  606,  607,  608,  609,  610,  611,  612
  613,  614,  615,  616,  617,  618,  619,  620,  621,  622,  623,  624,  625,  626,  627,  628
** ... 168 like lines cut
*Elset, elset=Set-1, generate
 1801,  4275,     1
*Nset, nset=Set-3
    1,    2,    3,    4,    5,    6,    7,    8,    9,   10,   11,   12,   13,   14,   15,   16
   17,   18,   19,   20,   21,   22,   23,   24,   25,   26,   27,   28,   29,   30,   31,   32
   33,   34,   35,   36,   37,   38,   39,   40,   41,   42,   43,   44,   45,   46,   47,   48
   49,   50,   51,   52,   53,   54,   55,   56,   57,   58,   59,   60,   61,   62,   63,   64
   65,   66,   67,   68,   69,   70,   71,   72,   73,   74,   75,   76,   77,   78,   79,   80
   81,   82,   83,   84,   85,   86,   87,   88,   89,   90,   91,   92,   93,   94,   95,   96
   97,   98,   99,  100,  101,  102,  103,  104,  105,  106,  107,  108,  109,  110,  111,  112
  113,  114,  115,  116,  117,  118,  119,  120,  121,  122,  123,  124,  125,  126,  127,  128
  129,  130,  131,  132,  133,  134,  135,  136,  137,  138,  139,  140,  141,  142,  143,  144
  145,  146,  147,  148,  149,  150,  151,  152,  153,  154,  155,  156,  157,  158,  159,  160
  161,  162,  163,  164,  165,  166,  167,  168,  169,  170,  171,  172,  173,  174,  175,  176
  177,  178,  179,  180,  181,  182,  183,  184,  185,  186,  187,  188,  189,  190,  191,  192
  193,  194,  195,  196,  197,  198,  199,  200,  201,  202,  203,  204,  205,  206,  207,  208
  209,  210,  211,  212,  213,  214,  215,  216,  217,  218,  219,  220,  221,  222,  223,  224
  225,  226,  227,  228,  229,  230,  231,  232,  233,  234,  235,  236,  237,  238,  239,  240
  241,  242,  243,  244,  245,  246,  247,  248,  249,  250,  251,  252,  253,  254,  255,  256
  257,  258,  259,  260,  261,  262,  263,  264,  265,  266,  267,  268,  269,  270,  271,  272
  273,  274,  275,  276,  277,  278,  279,  280,  281,  282,  283,  284,  285,  286,  287,  288
  289,  290,  291,  292,  293,  294,  295,  296,  297,  298,  299,  300,  301,  302,  303,  304
  305,  306,  307,  308,  309,  310,  311,  312,  313,  314,  315,  316,  317,  318,  319,  320
** ... 150 like lines cut
*Elset, elset=Set-3, generate
    1,  1800,     1
** Section: Matrix
*Solid Section, elset=Set-3, material=Matrix
,
*Orientation, name=Ori-2
1., 0., 0., 0., 1., 0.
1, 0.
** Section: Fibre
*Solid Section, elset=Set-1, orientation=Ori-2, material=Fibre
,
*End Part
**  
**
** ASSEMBLY
**
*Assembly, name=Assembly
**  
*Instance, name=Part-1-1, part=Part-1
*End Instance
**  
*Elset, elset=_Surf-1_S1, internal, instance=Part-1-1, generate
   1,  120,    1
*Elset, elset=_Surf-1_S2, internal, instance=Part-1-1, generate
 1801,  1965,     1
*Surface, type=ELEMENT, name=Surf-1
_Surf-1_S1, S1
_Surf-1_S2, S2
*Elset, elset=_Surf-2_S2, internal, instance=Part-1-1, generate
 1681,  1800,     1
*Elset, elset=_Surf-2_S1, internal, instance=Part-1-1, generate
 4111,  4275,     1
*Surface, type=ELEMENT, name=Surf-2
_Surf-2_S2, S2
_Surf-2_S1, S1
*Elset, elset=_Surf-3_S4, internal, instance=Part-1-1
    6,   21,   24,   27,   62,   64,   66,  126,  141,  144,  147,  182,  184,  186,  246,  261
  264,  267,  302,  304,  306,  366,  381,  384,  387,  422,  424,  426,  486,  501,  504,  507
  542,  544,  546,  606,  621,  624,  627,  662,  664,  666,  726,  741,  744,  747,  782,  784
  786,  846,  861,  864,  867,  902,  904,  906,  966,  981,  984,  987, 1022, 1024, 1026, 1086
 1101, 1104, 1107, 1142, 1144, 1146, 1206, 1221, 1224, 1227, 1262, 1264, 1266, 1326, 1341, 1344
 1347, 1382, 1384, 1386, 1446, 1461, 1464, 1467, 1502, 1504, 1506, 1566, 1581, 1584, 1587, 1622
 1624, 1626, 1686, 1701, 1704, 1707, 1742, 1744, 1746
*Elset, elset=_Surf-3_S5, internal, instance=Part-1-1
    7,    8,   67,  127,  128,  187,  247,  248,  307,  367,  368,  427,  487,  488,  547,  607
  608,  667,  727,  728,  787,  847,  848,  907,  967,  968, 1027, 1087, 1088, 1147, 1207, 1208
 1267, 1327, 1328, 1387, 1447, 1448, 1507, 1567, 1568, 1627, 1687, 1688, 1747
*Elset, elset=_Surf-3_S6, internal, instance=Part-1-1
   34,   37,   40,   43,  154,  157,  160,  163,  274,  277,  280,  283,  394,  397,  400,  403
  514,  517,  520,  523,  634,  637,  640,  643,  754,  757,  760,  763,  874,  877,  880,  883
  994,  997, 1000, 1003, 1114, 1117, 1120, 1123, 1234, 1237, 1240, 1243, 1354, 1357, 1360, 1363
 1474, 1477, 1480, 1483, 1594, 1597, 1600, 1603, 1714, 1717, 1720, 1723
*Surface, type=ELEMENT, name=Surf-3
_Surf-3_S4, S4
_Surf-3_S5, S5
_Surf-3_S6, S6
*Elset, elset=_Surf-4_S4, internal, instance=Part-1-1
   53,   55,   93,   96,   99,  120,  173,  175,  213,  216,  219,  240,  293,  295,  333,  336
  339,  360,  413,  415,  453,  456,  459,  480,  533,  535,  573,  576,  579,  600,  653,  655
  693,  696,  699,  720,  773,  775,  813,  816,  819,  840,  893,  895,  933,  936,  939,  960
 1013, 1015, 1053, 1056, 1059, 1080, 1133, 1135, 1173, 1176, 1179, 1200, 1253, 1255, 1293, 1296
 1299, 1320, 1373, 1375, 1413, 1416, 1419, 1440, 1493, 1495, 1533, 1536, 1539, 1560, 1613, 1615
 1653, 1656, 1659, 1680, 1733, 1735, 1773, 1776, 1779, 1800
*Elset, elset=_Surf-4_S5, internal, instance=Part-1-1
   56,  104,  105,  106,  176,  224,  225,  226,  296,  344,  345,  346,  416,  464,  465,  466
  536,  584,  585,  586,  656,  704,  705,  706,  776,  824,  825,  826,  896,  944,  945,  946
 1016, 1064, 1065, 1066, 1136, 1184, 1185, 1186, 1256, 1304, 1305, 1306, 1376, 1424, 1425, 1426
 1496, 1544, 1545, 1546, 1616, 1664, 1665, 1666, 1736, 1784, 1785, 1786
*Elset, elset=_Surf-4_S6, internal, instance=Part-1-1
   71,   74,   77,   80,  191,  194,  197,  200,  311,  314,  317,  320,  431,  434,  437,  440
  551,  554,  557,  560,  671,  674,  677,  680,  791,  794,  797,  800,  911,  914,  917,  920
 1031, 1034, 1037, 1040, 1151, 1154, 1157, 1160, 1271, 1274, 1277, 1280, 1391, 1394, 1397, 1400
 1511, 1514, 1517, 1520, 1631, 1634, 1637, 1640, 1751, 1754, 1757, 1760
*Surface, type=ELEMENT, name=Surf-4
_Surf-4_S4, S4
_Surf-4_S5, S5
_Surf-4_S6, S6
*Elset, elset=_Surf-5_S4, internal, instance=Part-1-1
   67,   68,   84,   86,   88,   90,  116,  117,  118,  187,  188,  204,  206,  208,  210,  236
  237,  238,  307,  308,  324,  326,  328,  330,  356,  357,  358,  427,  428,  444,  446,  448
  450,  476,  477,  478,  547,  548,  564,  566,  568,  570,  596,  597,  598,  667,  668,  684
  686,  688,  690,  716,  717,  718,  787,  788,  804,  806,  808,  810,  836,  837,  838,  907
  908,  924,  926,  928,  930,  956,  957,  958, 1027, 1028, 1044, 1046, 1048, 1050, 1076, 1077
 1078, 1147, 1148, 1164, 1166, 1168, 1170, 1196, 1197, 1198, 1267, 1268, 1284, 1286, 1288, 1290
 1316, 1317, 1318, 1387, 1388, 1404, 1406, 1408, 1410, 1436, 1437, 1438, 1507, 1508, 1524, 1526
 1528, 1530, 1556, 1557, 1558, 1627, 1628, 1644, 1646, 1648, 1650, 1676, 1677, 1678, 1747, 1748
 1764, 1766, 1768, 1770, 1796, 1797, 1798
*Elset, elset=_Surf-5_S5, internal, instance=Part-1-1
   69,  119,  120,  189,  239,  240,  309,  359,  360,  429,  479,  480,  549,  599,  600,  669
  719,  720,  789,  839,  840,  909,  959,  960, 1029, 1079, 1080, 1149, 1199, 1200, 1269, 1319
 1320, 1389, 1439, 1440, 1509, 1559, 1560, 1629, 1679, 1680, 1749, 1799, 1800
*Elset, elset=_Surf-5_S6, internal, instance=Part-1-1
  100,  102,  220,  222,  340,  342,  460,  462,  580,  582,  700,  702,  820,  822,  940,  942
 1060, 1062, 1180, 1182, 1300, 1302, 1420, 1422, 1540, 1542, 1660, 1662, 1780, 1782
*Surface, type=ELEMENT, name=Surf-5
_Surf-5_S4, S4
_Surf-5_S5, S5
_Surf-5_S6, S6
*Elset, elset=_Surf-6_S4, internal, instance=Part-1-1
    3,    4,   29,   31,   33,   56,   57,  123,  124,  149,  151,  153,  176,  177,  243,  244
  269,  271,  273,  296,  297,  363,  364,  389,  391,  393,  416,  417,  483,  484,  509,  511
  513,  536,  537,  603,  604,  629,  631,  633,  656,  657,  723,  724,  749,  751,  753,  776
  777,  843,  844,  869,  871,  873,  896,  897,  963,  964,  989,  991,  993, 1016, 1017, 1083
 1084, 1109, 1111, 1113, 1136, 1137, 1203, 1204, 1229, 1231, 1233, 1256, 1257, 1323, 1324, 1349
 1351, 1353, 1376, 1377, 1443, 1444, 1469, 1471, 1473, 1496, 1497, 1563, 1564, 1589, 1591, 1593
 1616, 1617, 1683, 1684, 1709, 1711, 1713, 1736, 1737
*Elset, elset=_Surf-6_S5, internal, instance=Part-1-1
    5,    6,   46,   47,  125,  126,  166,  167,  245,  246,  286,  287,  365,  366,  406,  407
  485,  486,  526,  527,  605,  606,  646,  647,  725,  726,  766,  767,  845,  846,  886,  887
  965,  966, 1006, 1007, 1085, 1086, 1126, 1127, 1205, 1206, 1246, 1247, 1325, 1326, 1366, 1367
 1445, 1446, 1486, 1487, 1565, 1566, 1606, 1607, 1685, 1686, 1726, 1727
*Elset, elset=_Surf-6_S6, internal, instance=Part-1-1
   13,   15,   17,  133,  135,  137,  253,  255,  257,  373,  375,  377,  493,  495,  497,  613
  615,  617,  733,  735,  737,  853,  855,  857,  973,  975,  977, 1093, 1095, 1097, 1213, 1215
 1217, 1333, 1335, 1337, 1453, 1455, 1457, 1573, 1575, 1577, 1693, 1695, 1697
*Surface, type=ELEMENT, name=Surf-6
_Surf-6_S4, S4
_Surf-6_S5, S5
_Surf-6_S6, S6
*Elset, elset=_Surf-7_S1, internal, instance=Part-1-1, generate
   1,  120,    1
*Elset, elset=_Surf-7_S2, internal, instance=Part-1-1, generate
 1801,  1965,     1
*Surface, type=ELEMENT, name=Surf-7
_Surf-7_S1, S1
_Surf-7_S2, S2
*Elset, elset=_Surf-8_S4, internal, instance=Part-1-1
    6,   21,   24,   27,   62,   64,   66,  126,  141,  144,  147,  182,  184,  186,  246,  261
  264,  267,  302,  304,  306,  366,  381,  384,  387,  422,  424,  426,  486,  501,  504,  507
  542,  544,  546,  606,  621,  624,  627,  662,  664,  666,  726,  741,  744,  747,  782,  784
  786,  846,  861,  864,  867,  902,  904,  906,  966,  981,  984,  987, 1022, 1024, 1026, 1086
 1101, 1104, 1107, 1142, 1144, 1146, 1206, 1221, 1224, 1227, 1262, 1264, 1266, 1326, 1341, 1344
 1347, 1382, 1384, 1386, 1446, 1461, 1464, 1467, 1502, 1504, 1506, 1566, 1581, 1584, 1587, 1622
 1624, 1626, 1686, 1701, 1704, 1707, 1742, 1744, 1746
*Elset, elset=_Surf-8_S5, internal, instance=Part-1-1
    7,    8,   67,  127,  128,  187,  247,  248,  307,  367,  368,  427,  487,  488,  547,  607
  608,  667,  727,  728,  787,  847,  848,  907,  967,  968, 1027, 1087, 1088, 1147, 1207, 1208
 1267, 1327, 1328, 1387, 1447, 1448, 1507, 1567, 1568, 1627, 1687, 1688, 1747
*Elset, elset=_Surf-8_S6, internal, instance=Part-1-1
   34,   37,   40,   43,  154,  157,  160,  163,  274,  277,  280,  283,  394,  397,  400,  403
  514,  517,  520,  523,  634,  637,  640,  643,  754,  757,  760,  763,  874,  877,  880,  883
  994,  997, 1000, 1003, 1114, 1117, 1120, 1123, 1234, 1237, 1240, 1243, 1354, 1357, 1360, 1363
 1474, 1477, 1480, 1483, 1594, 1597, 1600, 1603, 1714, 1717, 1720, 1723
*Surface, type=ELEMENT, name=Surf-8
_Surf-8_S4, S4
_Surf-8_S5, S5
_Surf-8_S6, S6
*Elset, elset=_Surf-9_S2, internal, instance=Part-1-1, generate
 1681,  1800,     1
*Elset, elset=_Surf-9_S1, internal, instance=Part-1-1, generate
 4111,  4275,     1
*Surface, type=ELEMENT, name=Surf-9
_Surf-9_S2, S2
_Surf-9_S1, S1
*Elset, elset=_Surf-10_S4, internal, instance=Part-1-1
   53,   55,   93,   96,   99,  120,  173,  175,  213,  216,  219,  240,  293,  295,  333,  336
  339,  360,  413,  415,  453,  456,  459,  480,  533,  535,  573,  576,  579,  600,  653,  655
  693,  696,  699,  720,  773,  775,  813,  816,  819,  840,  893,  895,  933,  936,  939,  960
 1013, 1015, 1053, 1056, 1059, 1080, 1133, 1135, 1173, 1176, 1179, 1200, 1253, 1255, 1293, 1296
 1299, 1320, 1373, 1375, 1413, 1416, 1419, 1440, 1493, 1495, 1533, 1536, 1539, 1560, 1613, 1615
 1653, 1656, 1659, 1680, 1733, 1735, 1773, 1776, 1779, 1800
*Elset, elset=_Surf-10_S5, internal, instance=Part-1-1
   56,  104,  105,  106,  176,  224,  225,  226,  296,  344,  345,  346,  416,  464,  465,  466
  536,  584,  585,  586,  656,  704,  705,  706,  776,  824,  825,  826,  896,  944,  945,  946
 1016, 1064, 1065, 1066, 1136, 1184, 1185, 1186, 1256, 1304, 1305, 1306, 1376, 1424, 1425, 1426
 1496, 1544, 1545, 1546, 1616, 1664, 1665, 1666, 1736, 1784, 1785, 1786
*Elset, elset=_Surf-10_S6, internal, instance=Part-1-1
   71,   74,   77,   80,  191,  194,  197,  200,  311,  314,  317,  320,  431,  434,  437,  440
  551,  554,  557,  560,  671,  674,  677,  680,  791,  794,  797,  800,  911,  914,  917,  920
 1031, 1034, 1037, 1040, 1151, 1154, 1157, 1160, 1271, 1274, 1277, 1280, 1391, 1394, 1397, 1400
 1511, 1514, 1517, 1520, 1631, 1634, 1637, 1640, 1751, 1754, 1757, 1760
*Surface, type=ELEMENT, name=Surf-10
_Surf-10_S4, S4
_Surf-10_S5, S5
_Surf-10_S6, S6
*Elset, elset=_Surf-11_S1, internal, instance=Part-1-1, generate
   1,  120,    1
*Elset, elset=_Surf-11_S2, internal, instance=Part-1-1, generate
 1801,  1965,     1
*Surface, type=ELEMENT, name=Surf-11
_Surf-11_S1, S1
_Surf-11_S2, S2
*Elset, elset=_Surf-12_S4, internal, instance=Part-1-1
   67,   68,   84,   86,   88,   90,  116,  117,  118,  187,  188,  204,  206,  208,  210,  236
  237,  238,  307,  308,  324,  326,  328,  330,  356,  357,  358,  427,  428,  444,  446,  448
  450,  476,  477,  478,  547,  548,  564,  566,  568,  570,  596,  597,  598,  667,  668,  684
  686,  688,  690,  716,  717,  718,  787,  788,  804,  806,  808,  810,  836,  837,  838,  907
  908,  924,  926,  928,  930,  956,  957,  958, 1027, 1028, 1044, 1046, 1048, 1050, 1076, 1077
 1078, 1147, 1148, 1164, 1166, 1168, 1170, 1196, 1197, 1198, 1267, 1268, 1284, 1286, 1288, 1290
 1316, 1317, 1318, 1387, 1388, 1404, 1406, 1408, 1410, 1436, 1437, 1438, 1507, 1508, 1524, 1526
 1528, 1530, 1556, 1557, 1558, 1627, 1628, 1644, 1646, 1648, 1650, 1676, 1677, 1678, 1747, 1748
 1764, 1766, 1768, 1770, 1796, 1797, 1798
*Elset, elset=_Surf-12_S5, internal, instance=Part-1-1
   69,  119,  120,  189,  239,  240,  309,  359,  360,  429,  479,  480,  549,  599,  600,  669
  719,  720,  789,  839,  840,  909,  959,  960, 1029, 1079, 1080, 1149, 1199, 1200, 1269, 1319
 1320, 1389, 1439, 1440, 1509, 1559, 1560, 1629, 1679, 1680, 1749, 1799, 1800
*Elset, elset=_Surf-12_S6, internal, instance=Part-1-1
  100,  102,  220,  222,  340,  342,  460,  462,  580,  582,  700,  702,  820,  822,  940,  942
 1060, 1062, 1180, 1182, 1300, 1302, 1420, 1422, 1540, 1542, 1660, 1662, 1780, 1782
*Surface, type=ELEMENT, name=Surf-12
_Surf-12_S4, S4
_Surf-12_S5, S5
_Surf-12_S6, S6
*Elset, elset=_Surf-13_S2, internal, instance=Part-1-1, generate
 1681,  1800,     1
*Elset, elset=_Surf-13_S1, internal, instance=Part-1-1, generate
 4111,  4275,     1
*Surface, type=ELEMENT, name=Surf-13
_Surf-13_S2, S2
_Surf-13_S1, S1
*Elset, elset=_Surf-14_S4, internal, instance=Part-1-1
    3,    4,   29,   31,   33,   56,   57,  123,  124,  149,  151,  153,  176,  177,  243,  244
  269,  271,  273,  296,  297,  363,  364,  389,  391,  393,  416,  417,  483,  484,  509,  511
  513,  536,  537,  603,  604,  629,  631,  633,  656,  657,  723,  724,  749,  751,  753,  776
  777,  843,  844,  869,  871,  873,  896,  897,  963,  964,  989,  991,  993, 1016, 1017, 1083
 1084, 1109, 1111, 1113, 1136, 1137, 1203, 1204, 1229, 1231, 1233, 1256, 1257, 1323, 1324, 1349
 1351, 1353, 1376, 1377, 1443, 1444, 1469, 1471, 1473, 1496, 1497, 1563, 1564, 1589, 1591, 1593
 1616, 1617, 1683, 1684, 1709, 1711, 1713, 1736, 1737
*Elset, elset=_Surf-14_S5, internal, instance=Part-1-1
    5,    6,   46,   47,  125,  126,  166,  167,  245,  246,  286,  287,  365,  366,  406,  407
  485,  486,  526,  527,  605,  606,  646,  647,  725,  726,  766,  767,  845,  846,  886,  887
  965,  966, 1006, 1007, 1085, 1086, 1126, 1127, 1205, 1206, 1246, 1247, 1325, 1326, 1366, 1367
 1445, 1446, 1486, 1487, 1565, 1566, 1606, 1607, 1685, 1686, 1726, 1727
*Elset, elset=_Surf-14_S6, internal, instance=Part-1-1
   13,   15,   17,  133,  135,  137,  253,  255,  257,  373,  375,  377,  493,  495,  497,  613
  615,  617,  733,  735,  737,  853,  855,  857,  973,  975,  977, 1093, 1095, 1097, 1213, 1215
 1217, 1333, 1335, 1337, 1453, 1455, 1457, 1573, 1575, 1577, 1693, 1695, 1697
*Surface, type=ELEMENT, name=Surf-14
_Surf-14_S4, S4
_Surf-14_S5, S5
_Surf-14_S6, S6
*Elset, elset=_Surf-15_S4, internal, instance=Part-1-1
    6,   21,   24,   27,   62,   64,   66,  126,  141,  144,  147,  182,  184,  186,  246,  261
  264,  267,  302,  304,  306,  366,  381,  384,  387,  422,  424,  426,  486,  501,  504,  507
  542,  544,  546,  606,  621,  624,  627,  662,  664,  666,  726,  741,  744,  747,  782,  784
  786,  846,  861,  864,  867,  902,  904,  906,  966,  981,  984,  987, 1022, 1024, 1026, 1086
 1101, 1104, 1107, 1142, 1144, 1146, 1206, 1221, 1224, 1227, 1262, 1264, 1266, 1326, 1341, 1344
 1347, 1382, 1384, 1386, 1446, 1461, 1464, 1467, 1502, 1504, 1506, 1566, 1581, 1584, 1587, 1622
 1624, 1626, 1686, 1701, 1704, 1707, 1742, 1744, 1746
*Elset, elset=_Surf-15_S5, internal, instance=Part-1-1
    7,    8,   67,  127,  128,  187,  247,  248,  307,  367,  368,  427,  487,  488,  547,  607
  608,  667,  727,  728,  787,  847,  848,  907,  967,  968, 1027, 1087, 1088, 1147, 1207, 1208
 1267, 1327, 1328, 1387, 1447, 1448, 1507, 1567, 1568, 1627, 1687, 1688, 1747
*Elset, elset=_Surf-15_S6, internal, instance=Part-1-1
   34,   37,   40,   43,  154,  157,  160,  163,  274,  277,  280,  283,  394,  397,  400,  403
  514,  517,  520,  523,  634,  637,  640,  643,  754,  757,  760,  763,  874,  877,  880,  883
  994,  997, 1000, 1003, 1114, 1117, 1120, 1123, 1234, 1237, 1240, 1243, 1354, 1357, 1360, 1363
 1474, 1477, 1480, 1483, 1594, 1597, 1600, 1603, 1714, 1717, 1720, 1723
*Surface, type=ELEMENT, name=Surf-15
_Surf-15_S4, S4
_Surf-15_S5, S5
_Surf-15_S6, S6
*Elset, elset=_Surf-16_S4, internal, instance=Part-1-1
   67,   68,   84,   86,   88,   90,  116,  117,  118,  187,  188,  204,  206,  208,  210,  236
  237,  238,  307,  308,  324,  326,  328,  330,  356,  357,  358,  427,  428,  444,  446,  448
  450,  476,  477,  478,  547,  548,  564,  566,  568,  570,  596,  597,  598,  667,  668,  684
  686,  688,  690,  716,  717,  718,  787,  788,  804,  806,  808,  810,  836,  837,  838,  907
  908,  924,  926,  928,  930,  956,  957,  958, 1027, 1028, 1044, 1046, 1048, 1050, 1076, 1077
 1078, 1147, 1148, 1164, 1166, 1168, 1170, 1196, 1197, 1198, 1267, 1268, 1284, 1286, 1288, 1290
 1316, 1317, 1318, 1387, 1388, 1404, 1406, 1408, 1410, 1436, 1437, 1438, 1507, 1508, 1524, 1526
 1528, 1530, 1556, 1557, 1558, 1627, 1628, 1644, 1646, 1648, 1650, 1676, 1677, 1678, 1747, 1748
 1764, 1766, 1768, 1770, 1796, 1797, 1798
*Elset, elset=_Surf-16_S5, internal, instance=Part-1-1
   69,  119,  120,  189,  239,  240,  309,  359,  360,  429,  479,  480,  549,  599,  600,  669
  719,  720,  789,  839,  840,  909,  959,  960, 1029, 1079, 1080, 1149, 1199, 1200, 1269, 1319
 1320, 1389, 1439, 1440, 1509, 1559, 1560, 1629, 1679, 1680, 1749, 1799, 1800
*Elset, elset=_Surf-16_S6, internal, instance=Part-1-1
  100,  102,  220,  222,  340,  342,  460,  462,  580,  582,  700,  702,  820,  822,  940,  942
 1060, 1062, 1180, 1182, 1300, 1302, 1420, 1422, 1540, 1542, 1660, 1662, 1780, 1782
*Surface, type=ELEMENT, name=Surf-16
_Surf-16_S4, S4
_Surf-16_S5, S5
_Surf-16_S6, S6
*Elset, elset=_Surf-17_S4, internal, instance=Part-1-1
   53,   55,   93,   96,   99,  120,  173,  175,  213,  216,  219,  240,  293,  295,  333,  336
  339,  360,  413,  415,  453,  456,  459,  480,  533,  535,  573,  576,  579,  600,  653,  655
  693,  696,  699,  720,  773,  775,  813,  816,  819,  840,  893,  895,  933,  936,  939,  960
 1013, 1015, 1053, 1056, 1059, 1080, 1133, 1135, 1173, 1176, 1179, 1200, 1253, 1255, 1293, 1296
 1299, 1320, 1373, 1375, 1413, 1416, 1419, 1440, 1493, 1495, 1533, 1536, 1539, 1560, 1613, 1615
 1653, 1656, 1659, 1680, 1733, 1735, 1773, 1776, 1779, 1800
*Elset, elset=_Surf-17_S5, internal, instance=Part-1-1
   56,  104,  105,  106,  176,  224,  225,  226,  296,  344,  345,  346,  416,  464,  465,  466
  536,  584,  585,  586,  656,  704,  705,  706,  776,  824,  825,  826,  896,  944,  945,  946
 1016, 1064, 1065, 1066, 1136, 1184, 1185, 1186, 1256, 1304, 1305, 1306, 1376, 1424, 1425, 1426
 1496, 1544, 1545, 1546, 1616, 1664, 1665, 1666, 1736, 1784, 1785, 1786
*Elset, elset=_Surf-17_S6, internal, instance=Part-1-1
   71,   74,   77,   80,  191,  194,  197,  200,  311,  314,  317,  320,  431,  434,  437,  440
  551,  554,  557,  560,  671,  674,  677,  680,  791,  794,  797,  800,  911,  914,  917,  920
 1031, 1034, 1037, 1040, 1151, 1154, 1157, 1160, 1271, 1274, 1277, 1280, 1391, 1394, 1397, 1400
 1511, 1514, 1517, 1520, 1631, 1634, 1637, 1640, 1751, 1754, 1757, 1760
*Surface, type=ELEMENT, name=Surf-17
_Surf-17_S4, S4
_Surf-17_S5, S5
_Surf-17_S6, S6
*Elset, elset=_Surf-18_S4, internal, instance=Part-1-1
    3,    4,   29,   31,   33,   56,   57,  123,  124,  149,  151,  153,  176,  177,  243,  244
  269,  271,  273,  296,  297,  363,  364,  389,  391,  393,  416,  417,  483,  484,  509,  511
  513,  536,  537,  603,  604,  629,  631,  633,  656,  657,  723,  724,  749,  751,  753,  776
  777,  843,  844,  869,  871,  873,  896,  897,  963,  964,  989,  991,  993, 1016, 1017, 1083
 1084, 1109, 1111, 1113, 1136, 1137, 1203, 1204, 1229, 1231, 1233, 1256, 1257, 1323, 1324, 1349
 1351, 1353, 1376, 1377, 1443, 1444, 1469, 1471, 1473, 1496, 1497, 1563, 1564, 1589, 1591, 1593
 1616, 1617, 1683, 1684, 1709, 1711, 1713, 1736, 1737
*Elset, elset=_Surf-18_S5, internal, instance=Part-1-1
    5,    6,   46,   47,  125,  126,  166,  167,  245,  246,  286,  287,  365,  366,  406,  407
  485,  486,  526,  527,  605,  606,  646,  647,  725,  726,  766,  767,  845,  846,  886,  887
  965,  966, 1006, 1007, 1085, 1086, 1126, 1127, 1205, 1206, 1246, 1247, 1325, 1326, 1366, 1367
 1445, 1446, 1486, 1487, 1565, 1566, 1606, 1607, 1685, 1686, 1726, 1727
*Elset, elset=_Surf-18_S6, internal, instance=Part-1-1
   13,   15,   17,  133,  135,  137,  253,  255,  257,  373,  375,  377,  493,  495,  497,  613
  615,  617,  733,  735,  737,  853,  855,  857,  973,  975,  977, 1093, 1095, 1097, 1213, 1215
 1217, 1333, 1335, 1337, 1453, 1455, 1457, 1573, 1575, 1577, 1693, 1695, 1697
*Surface, type=ELEMENT, name=Surf-18
_Surf-18_S4, S4
_Surf-18_S5, S5
_Surf-18_S6, S6
*End Assembly
** 
** MATERIALS
** 
*Material, name=Fibre
*Elastic, type=ENGINEERING CONSTANTS
74000.,74000.,74000.,   0.2,   0.2,   0.2,30800.,30800.
30800.,
*Material, name=Matrix
*Elastic
3350., 0.35
** ----------------------------------------------------------------
** 
** STEP: Step-1
** 
*Step, name=Step-1, nlgeom=NO
*Static, direct
0.1, 1., 
** 
** LOADS
** 
** Name: SXN   Type: Surface traction
*Dsload
Surf-2, TRVEC, 0.01, -1., 0., 0.
** Name: SXP   Type: Surface traction
*Dsload
Surf-1, TRVEC, 0.01, 1., 0., 0.
** 
** OUTPUT REQUESTS
** 
*Restart, write, frequency=0
** 
** FIELD OUTPUT: F-Output-1
** 
*Output, field
*Node Output
U, 
*Element Output, directions=YES
ESOL, EVOL, IVOL, S, SVOL
** 
** HISTORY OUTPUT: H-Output-1
** 
*Output, history, variable=PRESELECT
*End Step
